Circuit: * U:\2022-2023\Embedded system design\project\Simulatioons\LDR_simu.asc

Direct Newton iteration for .op point succeeded.
.step r=700
.step r=1020
.step r=1100
.step r=1180
.step r=18000
.step r=51000

Date: Fri Jan 13 11:01:39 2023
Total elapsed time: 0.202 seconds.

tnom = 27
temp = 27
method = modified trap
totiter = 2043
traniter = 2040
tranpoints = 1021
accept = 1021
rejected = 0
matrix size = 3
fillins = 0
solver = Normal
Matrix Compiler1: off  [0.0]/0.0/0.0
Matrix Compiler2:      15 opcodes  0.0/[0.0]/0.0

